# RIV for MODFLOW, generated by Flopy.
        20         0
        20         0 # stress period 0
         1         1         1 10.000000 6000.000000 -5.000000
         1         1        10 10.000000 6000.000000 -5.000000
         1         2         1 10.000000 6000.000000 -5.000000
         1         2        10 10.000000 6000.000000 -5.000000
         1         3         1 10.000000 6000.000000 -5.000000
         1         3        10 10.000000 6000.000000 -5.000000
         1         4         1 10.000000 6000.000000 -5.000000
         1         4        10 10.000000 6000.000000 -5.000000
         1         5         1 10.000000 6000.000000 -5.000000
         1         5        10 10.000000 6000.000000 -5.000000
         1         6         1 10.000000 6000.000000 -5.000000
         1         6        10 10.000000 6000.000000 -5.000000
         1         7         1 10.000000 6000.000000 -5.000000
         1         7        10 10.000000 6000.000000 -5.000000
         1         8         1 10.000000 6000.000000 -5.000000
         1         8        10 10.000000 6000.000000 -5.000000
         1         9         1 10.000000 6000.000000 -5.000000
         1         9        10 10.000000 6000.000000 -5.000000
         1        10         1 10.000000 6000.000000 -5.000000
         1        10        10 10.000000 6000.000000 -5.000000
        20         0 # stress period 1
         1         1         1 10.000000 6000.000000 -5.000000
         1         1        10  0.000000 5000.000000 -5.000000
         1         2         1 10.000000 6000.000000 -5.000000
         1         2        10  0.000000 5000.000000 -5.000000
         1         3         1 10.000000 6000.000000 -5.000000
         1         3        10  0.000000 5000.000000 -5.000000
         1         4         1 10.000000 6000.000000 -5.000000
         1         4        10  0.000000 5000.000000 -5.000000
         1         5         1 10.000000 6000.000000 -5.000000
         1         5        10  0.000000 5000.000000 -5.000000
         1         6         1 10.000000 6000.000000 -5.000000
         1         6        10  0.000000 5000.000000 -5.000000
         1         7         1 10.000000 6000.000000 -5.000000
         1         7        10  0.000000 5000.000000 -5.000000
         1         8         1 10.000000 6000.000000 -5.000000
         1         8        10  0.000000 5000.000000 -5.000000
         1         9         1 10.000000 6000.000000 -5.000000
         1         9        10  0.000000 5000.000000 -5.000000
         1        10         1 10.000000 6000.000000 -5.000000
         1        10        10  0.000000 5000.000000 -5.000000
        -1         0 # stress period 2
